%%%%%%%%%%%%%%%%%%%%%%%%%%%%%%%%%%%%%%%%%%%%%%%%%%%%%%%%%%%%%%%%%%%%%%%%%%%%%%%%
%                                                                              %
% SU2 configuration file                                                       %
% Case description: Optimization case for the ONERA M6 wing in inviscid flow   %
% Author: Francisco Palacios, Heather Kline	         	       	       %
% Institution: Stanford University	                                       %
% Date: 01.17.2017                                                             %
% File Version 5.0.0 "Raven"                                                   %
%                                                                              %
%%%%%%%%%%%%%%%%%%%%%%%%%%%%%%%%%%%%%%%%%%%%%%%%%%%%%%%%%%%%%%%%%%%%%%%%%%%%%%%%

% ------------- DIRECT, ADJOINT, AND LINEARIZED PROBLEM DEFINITION ------------%
%
% Physical governing equations (EULER, NAVIER_STOKES,
%                               WAVE_EQUATION, HEAT_EQUATION, FEM_ELASTICITY,
%                               POISSON_EQUATION)
SOLVER= EULER
%
% Mathematical problem (DIRECT, CONTINUOUS_ADJOINT, DISCRETE_ADJOINT)
MATH_PROBLEM= DIRECT
%
% Restart solution (NO, YES)
RESTART_SOL= NO


% -------------------- COMPRESSIBLE FREE-STREAM DEFINITION --------------------%
%
% Mach number (non-dimensional, based on the free-stream values)
MACH_NUMBER= 0.4
%
% Angle of attack (degrees)
AOA= 3.0
%
% Free-stream pressure (101325.0 N/m^2 by default, only for Euler equations)
FREESTREAM_PRESSURE= 101325.0
%
% Free-stream temperature (288.15 K by default)
FREESTREAM_TEMPERATURE= 300
%
% Number of total iterations
ITER= 100

% Compressible flow non-dimensionalization (DIMENSIONAL, FREESTREAM_PRESS_EQ_ONE,
%                              FREESTREAM_VEL_EQ_MACH, FREESTREAM_VEL_EQ_ONE)
REF_DIMENSIONALIZATION= FREESTREAM_PRESS_EQ_ONE

% --------------------------- CONVERGENCE PARAMETERS --------------------------&
%
% Convergence criteria (CAUCHY, RESIDUAL)
CONV_CRITERIA= RESIDUAL
%
%CONV_FIELD= RMS_DENSITY
%
% Residual reduction (order of magnitude with respect to the initial value)
%CONV_RESIDUAL_REDUCTION= 8
%
% Min value of the residual (log10 of the residual)
CONV_RESIDUAL_MINVAL= -4
%
% Start convergence criteria at iteration number
CONV_STARTITER= 25



% ------------------------- INPUT/OUTPUT INFORMATION --------------------------%
%
% Mesh input file
MESH_FILENAME= wing_structured_standard.su2
%
% Restart flow input file
SOLUTION_FILENAME= solution_flow.dat
%
% Mesh input file format (SU2)
MESH_FORMAT= SU2
%
% Output tabular format (CSV, TECPLOT)
TABULAR_FORMAT= CSV
%
% Output file convergence history
CONV_FILENAME= history
%
% Output file restart flow
RESTART_FILENAME= restart_flow.dat
%
% Output file flow (w/o extension) variables
VOLUME_FILENAME= flow
%
% Output file surface flow coefficient (w/o extension)
SURFACE_FILENAME= surface_flow
%
% Writing solution file frequency
WRT_SOL_FREQ= 100
%
% Writing solution file frequency for physical time steps (dual time)
WRT_SOL_FREQ_DUALTIME= 1
%
% Writing convergence history frequency
WRT_CON_FREQ= 1
%
% Writing convergence history frequency (dual time, only written to screen)
WRT_CON_FREQ_DUALTIME= 10
%
% Screen output
SCREEN_OUTPUT= (INNER_ITER, WALL_TIME, RMS_DENSITY, RMS_ENERGY, LIFT, DRAG)




% ---------------------- REFERENCE VALUE DEFINITION ---------------------------%
%
% Reference origin for moment computation
REF_ORIGIN_MOMENT_X = 0.25
REF_ORIGIN_MOMENT_Y = 0.00
REF_ORIGIN_MOMENT_Z = 0.00
%
% Reference length for pitching, rolling, and yawing non-dimensional moment
REF_LENGTH= 1
%
% Reference area for force coefficients (0 implies automatic calculation)
REF_AREA= 0
%


% ----------------------- BOUNDARY CONDITION DEFINITION -----------------------%
%
% Marker of the Euler boundary (0 implies no marker)
MARKER_EULER= ( LOWER_SIDE , TIP , UPPER_SIDE )

%
% Marker of the far field (0 implies no marker)
MARKER_FAR= ( ZNORMAL_FACES , YNORMAL_FACE  )
%
% Variable to activate the Total_Condition ( default )
%
% MARKER_INLET format (Inlet_Marker , Total Temperature (K), Total_Pressure (Pa) , Flow direction unity vector ( m/s ) ) 
INLET_TYPE= TOTAL_CONDITIONS
MARKER_INLET= ( INLET_FACE , 300 , 1e6 , 1.0 , 0.0, 0.0 )
%
%
%if Mass flow at INLET is described
% Format ( INLET_MARKER , Density , Velocity , unit velocity direction )
%INLET_TYPE= MASS_FLOW
%MARKER_INLET= ( INLET_FACE , 1.13 , 20 , 1.0 , 0.0 , 0.0 )
%
% OUTLET FLOW CONDITION ( MARKER_OUTLET , (static)PRESSURE (Pa) )
MARKER_OUTLET= (OUTLET_FACE , 1e5 )
%  % Marker of symmetry boundary (0 implies no marker)
MARKER_SYM= SYMMETRY 
%
% Marker of the surface which is going to be plotted or designed
MARKER_PLOTTING= ( UPPER_SIDE, LOWER_SIDE , TIP  )
%
% Marker of the surface where the functional (Cd, Cl, etc.) will be evaluated
MARKER_MONITORING= ( UPPER_SIDE, LOWER_SIDE , TIP )




% --------------------- FLOW NUMERICAL METHOD DEFINITION ----------------------%
% Convective numerical method: (JST, LAX-FRIEDRICH, ROE-1ST_ORDER, 
%                               ROE-2ND_ORDER)
CONV_NUM_METHOD_FLOW= JST
%
% 2nd and 4th order artificial dissipation coefficients
JST_SENSOR_COEFF= ( 0.5, 0.02 )
%
% Time discretization (RUNGE-KUTTA_EXPLICIT, EULER_IMPLICIT, EULER_EXPLICIT)
TIME_DISCRE_FLOW= EULER_IMPLICIT


% ----------------------- GEOMETRY EVALUATION PARAMETERS ----------------------%
%
% Marker(s) of the surface where geometrical based function will be evaluated
GEO_MARKER= ( LOWER_SIDE, UPPER_SIDE, TIP )
%
% Description of the geometry to be analyzed (AIRFOIL, WING, FUSELAGE)
GEO_DESCRIPTION= WING
%
% Coordinate of the stations to be analyzed
GEO_LOCATION_STATIONS= 0, 2.09, 2.9 ,3 , 3.01 , 3.02 , 3.03, 3.04 , 3.05, 3.06
%
% Geometrical bounds (Y coordinate) for the wing geometry analysis or
% fuselage evaluation (X coordinate)
GEO_BOUNDS= (0 , 3)
%
% Plot loads and Cp distributions on each airfoil section
GEO_PLOT_STATIONS= YES 
%
% Number of section cuts to make when calculating wing geometry
GEO_NUMBER_STATIONS= 50
%
% Geometrical evaluation mode (FUNCTION, GRADIENT)
GEO_MODE= FUNCTION

% ---------------------------   additional_variable -------------------------------------%



% ------------------- Residual-based Convergence Criteria -------------------------%
%

%
%
% Min value of the residual (log10 of the residual)
%CONV_RESIDUAL_MINVAL= -8


